<configuration>
   <input>
       <net-file value="NormalIntersection_no_TLS3.net.xml"/>
       <route-files value="NormalIntersection_no_TLS3.rou.xml"/>
	   <gui-settings-file value="gui.settings.xml"/>
   </input>
</configuration>