<?xml version="1.0" encoding="UTF-8"?>

<!-- generated on 4/30/2021 10:51:22 PM by Eclipse SUMO GUI Version 1.9.0
<configuration xmlns:xsi="http://www.w3.org/2001/XMLSchema-instance" xsi:noNamespaceSchemaLocation="http://sumo.dlr.de/xsd/sumoConfiguration.xsd">

    <input>
        <net-file value="../maps/NormalIntersection_no_TLS/NormalIntersection_no_TLS3.net.xml"/>
        <route-files value="../maps/NormalIntersection_no_TLS/NormalIntersection_no_TLS3.rou.xml"/>
        <additional-files value="../output/additional.xml"/>
    </input>

    <time>
        <step-length value="0.1"/>
    </time>

    <processing>
        <collision.action value="none"/>
        <scale value="3"/>
    </processing>

    <report>
        <verbose value="true"/>
        <duration-log.statistics value="true"/>
    </report>

    <traci_server>
        <remote-port value="58469"/>
    </traci_server>

    <gui_only>
        <gui-settings-file value="../maps/NormalIntersection_no_TLS/gui.settings.xml"/>
        <start value="true"/>
        <tracker-interval value="0.1"/>
    </gui_only>

</configuration>
